Version 4
SHEET 1 880 680
WIRE 560 -112 320 -112
WIRE 320 0 320 -112
WIRE 560 96 560 -112
WIRE -64 112 -128 112
WIRE 80 112 16 112
WIRE 320 112 320 80
WIRE 320 112 272 112
WIRE -128 128 -128 112
WIRE 320 176 272 176
WIRE 80 208 -128 208
WIRE -128 256 -128 208
WIRE 320 304 320 176
WIRE 560 304 560 176
WIRE 560 304 320 304
FLAG -128 256 0
SYMBOL Optos\\4N26 176 176 R0
SYMATTR InstName U1
SYMBOL res 32 96 R90
WINDOW 0 0 56 VBottom 2
WINDOW 3 32 56 VTop 2
SYMATTR InstName R1
SYMATTR Value 220
SYMBOL res 304 -16 R0
SYMATTR InstName R2
SYMATTR Value 1k
SYMBOL voltage -128 112 R0
WINDOW 3 24 96 Invisible 2
WINDOW 123 0 0 Left 0
WINDOW 39 0 0 Left 0
SYMATTR InstName V1
SYMATTR Value PULSE(0 5 10e-3 1e-9 1e-9 1e9)
SYMBOL voltage 560 80 R0
WINDOW 123 0 0 Left 0
WINDOW 39 0 0 Left 0
SYMATTR InstName V2
SYMATTR Value 12
TEXT -128 -56 Left 2 !.tran 0 100e-3 0 0.1e-3
