Version 4
SHEET 1 880 680
WIRE -272 -80 -272 -96
WIRE -272 0 -272 -80
WIRE 320 0 320 -96
WIRE -64 112 -128 112
WIRE 80 112 16 112
WIRE 320 112 320 80
WIRE 320 112 272 112
WIRE 400 112 320 112
WIRE -128 128 -128 112
WIRE -272 160 -272 80
WIRE 320 176 272 176
WIRE -272 208 -272 160
WIRE 80 208 -128 208
WIRE -128 256 -128 208
WIRE -272 368 -272 288
WIRE -272 384 -272 368
WIRE 320 384 320 176
FLAG -128 256 0
FLAG -272 160 fgnd
FLAG -272 -80 +5
FLAG -272 368 -5
FLAG 320 -96 +5
FLAG 320 384 -5
FLAG 400 176 fgnd
SYMBOL Optos\\4N26 176 176 R0
SYMATTR InstName U1
SYMBOL res 32 96 R90
WINDOW 0 0 56 VBottom 2
WINDOW 3 32 56 VTop 2
SYMATTR InstName R1
SYMATTR Value 220
SYMBOL res 304 -16 R0
SYMATTR InstName R2
SYMATTR Value 1k
SYMBOL voltage -128 112 R0
WINDOW 3 24 96 Invisible 2
WINDOW 123 0 0 Left 0
WINDOW 39 0 0 Left 0
SYMATTR Value PULSE(0 5 10e-3 1e-9 1e-9 10e-3)
SYMATTR InstName V1
SYMBOL voltage -272 -16 R0
WINDOW 123 0 0 Left 0
WINDOW 39 0 0 Left 0
SYMATTR InstName V2
SYMATTR Value 5
SYMBOL voltage -272 192 R0
WINDOW 123 0 0 Left 0
WINDOW 39 0 0 Left 0
SYMATTR InstName V3
SYMATTR Value 5
SYMBOL cap 384 112 R0
SYMATTR InstName C1
SYMATTR Value 100n
TEXT -128 -56 Left 2 !.tran 0 100e-3 0 0.1e-3
