Version 4
SHEET 1 1576 1208
WIRE 400 -64 -80 -64
WIRE 400 0 400 -64
WIRE -80 16 -80 -64
WIRE 960 80 960 32
WIRE 960 80 768 80
WIRE 1520 80 1520 64
WIRE 960 112 960 80
WIRE 768 128 768 80
WIRE 1520 160 1520 80
WIRE -80 176 -80 96
WIRE 128 176 -80 176
WIRE 224 176 192 176
WIRE 256 176 224 176
WIRE 400 176 400 80
WIRE 400 176 320 176
WIRE 864 176 832 176
WIRE -80 208 -80 176
WIRE 224 240 224 176
WIRE 160 256 160 224
WIRE 288 256 288 224
WIRE 768 256 768 224
WIRE 768 256 544 256
WIRE 864 256 864 176
WIRE 960 256 960 192
WIRE 960 256 864 256
WIRE 1008 256 960 256
WIRE 1264 256 1200 256
WIRE 1408 256 1344 256
WIRE 1408 272 1408 256
WIRE 768 288 768 256
WIRE 544 320 544 256
WIRE 544 320 224 320
WIRE 1008 320 960 320
WIRE 1520 320 1520 240
WIRE 864 336 864 256
WIRE 864 336 832 336
WIRE 1408 352 1200 352
WIRE 1520 368 1520 320
WIRE 160 400 160 256
WIRE 224 400 160 400
WIRE 288 400 288 256
WIRE 288 400 224 400
WIRE 1408 400 1408 352
WIRE 768 464 768 384
WIRE 960 464 960 320
WIRE 960 464 768 464
WIRE 960 528 960 464
WIRE 1520 528 1520 448
WIRE 1520 544 1520 528
FLAG -80 208 0
FLAG 400 176 v_relay
FLAG -720 288 0
FLAG -720 208 p_ssr
FLAG 224 176 ve
FLAG 160 256 vg1
FLAG 288 256 vg2
FLAG -720 464 0
FLAG -720 384 vge1
FLAG -720 624 0
FLAG -720 544 vge2
FLAG 1408 400 0
FLAG 1520 320 fgnd
FLAG 1520 80 +5
FLAG 1520 528 -5
FLAG 960 528 -5
FLAG 224 240 fgnd
FLAG 960 32 +5
SYMBOL res 384 -16 R0
SYMATTR InstName R1
SYMATTR Value 10
SYMBOL voltage -80 0 R0
WINDOW 123 0 0 Left 0
WINDOW 39 0 0 Left 0
SYMATTR InstName V1
SYMATTR Value SINE(0 100 50)
SYMBOL res 208 304 R0
WINDOW 0 5 116 Left 2
SYMATTR InstName R2
SYMATTR Value 10
SYMBOL bv -720 192 R0
SYMATTR InstName B1
SYMATTR Value V=I(R1)*V(v_relay)
SYMBOL irg4pc40ud 160 192 R270
WINDOW 3 73 -18 VBottom 2
SYMATTR InstName U1
SYMBOL irg4pc40ud 288 192 M270
WINDOW 3 74 -8 VBottom 2
SYMATTR InstName U2
SYMBOL bv -720 368 R0
SYMATTR InstName B2
SYMATTR Value V=V(vg1)-V(ve)
SYMBOL bv -720 528 R0
SYMATTR InstName B3
SYMATTR Value V=V(vg2)-V(ve)
SYMBOL Optos\\4N26 1104 320 M0
SYMATTR InstName U3
SYMBOL res 1248 240 M90
WINDOW 0 0 56 VBottom 2
WINDOW 3 32 56 VTop 2
SYMATTR InstName R3
SYMATTR Value 220
SYMBOL voltage 1408 256 M0
WINDOW 3 24 96 Invisible 2
WINDOW 123 0 0 Left 0
WINDOW 39 0 0 Left 0
SYMATTR Value PULSE(0 3.3 5e-3 1e-9 1e-9 10e-3 20e-3 3)
SYMATTR InstName V2
SYMBOL voltage 1520 144 R0
WINDOW 123 0 0 Left 0
WINDOW 39 0 0 Left 0
SYMATTR InstName V3
SYMATTR Value 10
SYMBOL voltage 1520 352 R0
WINDOW 123 0 0 Left 0
WINDOW 39 0 0 Left 0
SYMATTR InstName V4
SYMATTR Value 10
SYMBOL res 944 96 R0
SYMATTR InstName R4
SYMATTR Value 100k
SYMBOL npn 832 128 M0
SYMATTR InstName Q1
SYMATTR Value BC550C
SYMBOL pnp 832 384 R180
SYMATTR InstName Q2
SYMATTR Value BC560C
TEXT -80 -104 Left 2 !.tran 0 200e-3 0 0.1e-3
TEXT -864 -48 Left 2 ;Use the alternate solver with this model:
TEXT -864 -16 Left 1 ;Tools -> Control Panel -> SPICE -> Skip GMIN Stepping -> Alternate
TEXT -864 0 Left 1 ;Make sure the location of the symbol file (.asy) and  the subcircuit file (.sub) are in the path
TEXT -344 520 Left 2 !.MODEL BC560C pnp\n+IS=60e-15      BF=900                          VAF=160\n+IKF=0.10       ISE=70e-15      NE=1.42                         NF=1\n+RB=170                         RC=1.0                          RE=0.05\n+CJE=19e-12     MJE=0.3                         VJE=0.75\n+CJC=3.9e-12    MJC=0.3                         VJC=0.75        FC=0.5\n+TF=600e-12     XTF=7                           VTF=4                           ITF=0.45\n+TR=10e-9       BR=3                            IKR=0\n+EG=1.1         XTB=1.5                         XTI=3                           NC=2\n+ISC=0                          mfg=CA030211
TEXT -344 856 Left 2 !.MODEL BC550C npn\n+IS=45e-15      BF=689                          VAF=162\n+IKF=0.09       ISE=4600e-15    NE=2                            NF=0.9965\n+RB=167         RC=1                            RE=0.04\n+CJE=18.7e-12   MJE=0.35        VJE=0.75\n+CJC=6.2e-12    MJC=0.25        VJC=0.4                         FC=0.5\n+TF=595e-12     XTF=10                          VTF=10                          ITF=1\n+TR=10e-9       BR=12.2                         IKR=0.34\n+EG=1.2         XTB=1.65        XTI=3                           NC=0.996\n+NR=1.0                         VAR=120                         IRB=7e-5        RBM=1.1\n+XCJC=0.6       \n+ISC=5e-15      mfg=CA030111
